LAMMPS (23 Jun 2022)

variable 		movie equal 100000
variable 		output equal 5000
variable		solvent equal 0.2  #0.2 is a good solvent, 0.5 is a bad solvent, 1.0 is no solvent/vacuum
variable		np_rad equal 25.0  #NP radius in Angstrom (= 0.1 nm)
variable                coor_del equal 3.0  # in order for a ligand to be considered to be bound, it must be within this radius of the edge of the NP VDW
variable 		E_bind equal 14.0  #ligand-NP binding energy in kcal/mol
variable		Lbox equal 150.0   #edge length of cubic simulation box
variable 		Nlig equal 600	   #number of ligands
variable		seed equal 314159
variable		trajsteps equal 100000000	 #number of timesteps (length of simulation)

units 			real
atom_style		molecular

region 			box block 0 150 0 150 0 150 units box
create_box		4 box bond/types 2 angle/types 1 extra/bond/per/atom 2 extra/angle/per/atom 1 extra/special/per/atom 3
Created orthogonal box = (0 0 0) to (150 150 150)

molecule		lig ligand.mol
Read molecule template lig:
  1 molecules
  0 fragments
  5 atoms with max type 2
  4 bonds with max type 1
  3 angles with max type 1
  0 dihedrals with max type 0
  0 impropers with max type 0
#molecule		hex hexane.mol

mass            1 60 #C1, MARTINI bead representing a 4-carbon segment of an alkyl chain
mass            2 60 #N6d, MARTINI bead representing a NH2 amino group + a 2-carbon segment of an alkyl chain
mass            3 43 #SC2, MARTINI bead representing a 3-carbon segment of an alkyl chain. NOT USED IN THIS SIMULATION!
mass            4 500 #a spherical nanoparticle. the mass is not realistic.

# put NP in center
create_atoms	4 single $(v_Lbox/2) $(v_Lbox/2) $(v_Lbox/2) units box
create_atoms	4 single 75 $(v_Lbox/2) $(v_Lbox/2) units box
create_atoms	4 single 75 75 $(v_Lbox/2) units box
create_atoms	4 single 75 75 75 units box
Created 1 atoms

# define region as everything outside a spherical center in sim. box. ASSUME SIM. BOX IS IMPLIED? doc seems to...
region			box_with_hole sphere $(v_Lbox/2) $(v_Lbox/2) $(v_Lbox/2) $(v_np_rad+5.0) side out units box
region			box_with_hole sphere 75 $(v_Lbox/2) $(v_Lbox/2) $(v_np_rad+5.0) side out units box
region			box_with_hole sphere 75 75 $(v_Lbox/2) $(v_np_rad+5.0) side out units box
region			box_with_hole sphere 75 75 75 $(v_np_rad+5.0) side out units box
region			box_with_hole sphere 75 75 75 30 side out units box

create_atoms	0 random 600 314159 box_with_hole mol lig 12345
Created 3000 atoms

pair_style		lj/expand 12.0
pair_modify		shift yes

#pair_coeff		1 1 energy sigma delta cut

#ligand-ligand interactions
pair_coeff		1 1 $(v_solvent*0.810) 4.7 0 12
pair_coeff		1 1 0.16200000000000003286 4.7 0 12
pair_coeff		2 2 $(v_solvent*0.841) 4.7 0 12
pair_coeff		2 2 0.16820000000000001616 4.7 0 12
pair_coeff		1 2 $(v_solvent*0.667) 4.7 0 12
pair_coeff		1 2 0.13340000000000001856 4.7 0 12

#solvent-ligand interactions, NOT USED IN THIS SIMULATION
pair_coeff		3 3 0.562 4.1 0 12
pair_coeff		1 3 0.755 4.3 0 12
pair_coeff		2 3 0.554 4.3 0 12

#interactions involving the NP
pair_coeff  	1 4 0.100 4.0 $(v_np_rad-2.5) 12
pair_coeff  	1 4 0.100 4.0 22.5 12
pair_coeff  	3 4 0.100 4.0 $(v_np_rad-2.5) 12
pair_coeff  	3 4 0.100 4.0 22.5 12
pair_coeff		4 4 0.100 4.0 $(2*v_np_rad-4.0) 12
pair_coeff		4 4 0.100 4.0 46 12
pair_coeff   	2 4 14 4.0 $(v_np_rad-2.5) 12
pair_coeff   	2 4 14 4.0 22.5 12

bond_style  	harmonic
bond_coeff  	1 4.54 4.7 	#C1-C1
bond_coeff		2 5.98 4.05 #SC2-SC2, hexane

angle_style		cosine/squared
angle_coeff		1 4.1826 180

special_bonds 	lj 0 1 1
Finding 1-2 1-3 1-4 neighbors ...
     2 = max # of 1-2 neighbors
     2 = max # of 1-3 neighbors
     2 = max # of 1-4 neighbors
     7 = max # of special neighbors

group			ligands type 1 2
3000 atoms in group ligands

#EQULILIBRATION: getting rid of overlaps between particles using fix nve/limit ***************

fix 			1 ligands nve/limit 0.1
fix 			2 ligands langevin 300 300 1000 12345 #langevin thermostat

timestep		30

thermo 			5000

dump      		1 all custom 5000 pos.lammpstrj type x y z
dump_modify		1 sort id

run				10000
Generated 0 of 6 mixed pair_coeff terms from geometric mixing rule
  update every 1 steps, delay 10 steps, check yes
Step          Temp          E_pair         E_mol          TotEng         Press
0   0              9.8623636e+13  4.0068356e-25  9.8623636e+13  8.0147754e+12
Loop time of 3.87468 on 64 procs for 10000 steps with 3001 atoms

#PRODUCTION RUN ******************************************************************************

unfix 			1
fix 			1 ligands nve
undump			1
# define spherical region in center of sim. box
# region			center sphere $(v_Lbox/2) $(v_Lbox/2) $(v_Lbox/2) $(v_np_rad+5.0) units box
# delete atoms in the region
# delete_atoms	region center mol yes
# put NP in the hole
# create_atoms	4 single $(v_Lbox/2) $(v_Lbox/2) $(v_Lbox/2) units box

dump      		2 all custom 100000 pos2.lammpstrj type x y z
dump_modify		2 sort id
dump 			2. all custom 5000 pos2_long.lammpstrj type x y z
dump_modify 		2. sort id

group           nps     type 4
1 atoms in group nps
group           amines  type 2
600 atoms in group amines

# count coordination number of NP
compute coords nps coord/atom cutoff $(v_np_rad + v_coor_del) 2
compute coords nps coord/atom cutoff 28 2
dump 3 nps custom 5000 coords.dmp c_coords
# equivalent calculation below
# compute coords nps coord/atom cutoff 28 group amines

run				100000000
Generated 0 of 6 mixed pair_coeff terms from geometric mixing rule
  update every 1 steps, delay 10 steps, check yes
Step          Temp          E_pair         E_mol          TotEng         Press
10000   141.66307     -794.29036      639.23632      1111.758       3.0379046
Averages over the last 10001 of 20001 rows, steps 50010000 to 100010000:
Temp E_pair E_mol TotEng Press
299.999 -5964.34 1173.4 -2108.23 2.53112
Loop time of 61491.4 on 64 procs for 100000000 steps with 3001 atoms
